11

C          0.71450        0.41250        0.00000
C          0.71450       -0.41250        0.00000
C          0.00000        0.82500        0.00000
C          0.00000       -0.82500        0.00000
C         -0.71450       -0.41250        0.00000
C         -0.71450        0.41250        0.00000
C          1.42880        1.65000        0.00000
C          0.71450        2.06240        0.00000
O          0.71450        2.88740        0.00000
N          0.00000        1.65000        0.00000
O          0.00000       -1.64990        0.00000
